17GS
     RDKit          3D

 55 54  0  0  1  0  0  0  0  0999 V2000
   14.7480   10.9550   23.4130 N   0  0  0  0  0  0  0  0  0  0  0  0
   14.6250   10.0570   24.5880 C   0  0  1  0  0  0  0  0  0  0  0  0
   15.7410    9.0150   24.5230 C   0  0  0  0  0  0  0  0  0  0  0  0
   16.1720    8.5240   25.5870 O   0  0  0  0  0  0  0  0  0  0  0  0
   16.2040    8.7280   23.3990 O   0  0  0  0  0  0  0  0  0  0  0  0
   13.2510    9.3850   24.5940 C   0  0  0  0  0  0  0  0  0  0  0  0
   12.9790    8.5350   25.8260 C   0  0  0  0  0  0  0  0  0  0  0  0
   11.5220    8.2100   25.9860 C   0  0  0  0  0  0  0  0  0  0  0  0
   10.7650    8.2470   25.0170 O   0  0  0  0  0  0  0  0  0  0  0  0
   11.1160    7.8620   27.1980 N   0  0  0  0  0  0  0  0  0  0  0  0
    9.7140    7.5550   27.4490 C   0  0  2  0  0  0  0  0  0  0  0  0
    9.3530    7.8290   28.8970 C   0  0  0  0  0  0  0  0  0  0  0  0
   10.2290    7.8700   29.7690 O   0  0  0  0  0  0  0  0  0  0  0  0
    9.3780    6.1120   27.0670 C   0  0  0  0  0  0  0  0  0  0  0  0
   10.2500    4.8710   28.0150 S   0  0  0  0  0  0  0  0  0  0  0  0
    9.9000    3.4110   27.0250 C   0  0  0  0  0  0  0  0  0  0  0  0
    8.5040    2.8390   27.2200 C   0  0  0  0  0  0  0  0  0  0  0  0
    8.2650    2.3660   28.6430 C   0  0  0  0  0  0  0  0  0  0  0  0
    7.0830    1.4150   28.6830 C   0  0  0  0  0  0  0  0  0  0  0  0
    6.7920    0.9130   30.0850 C   0  0  0  0  0  0  0  0  0  0  0  0
    6.0710    1.9550   30.8970 C   0  0  0  0  0  0  0  0  0  0  0  0
    8.0620    8.0330   29.1330 N   0  0  0  0  0  0  0  0  0  0  0  0
    7.5750    8.3350   30.4620 C   0  0  0  0  0  0  0  0  0  0  0  0
    6.9030    9.6940   30.4160 C   0  0  0  0  0  0  0  0  0  0  0  0
    6.1680   10.0220   31.3650 O   0  0  0  0  0  0  0  0  0  0  0  0
    7.0900   10.4250   29.4160 O   0  0  0  0  0  0  0  0  0  0  0  0
    0.0000    0.0000    0.0000 H   0  0  0  0  0  0  0  0  0  0  0  0
    0.0000    0.0000    0.0000 H   0  0  0  0  0  0  0  0  0  0  0  0
    0.0000    0.0000    0.0000 H   0  0  0  0  0  0  0  0  0  0  0  0
    0.0000    0.0000    0.0000 H   0  0  0  0  0  0  0  0  0  0  0  0
    0.0000    0.0000    0.0000 H   0  0  0  0  0  0  0  0  0  0  0  0
    0.0000    0.0000    0.0000 H   0  0  0  0  0  0  0  0  0  0  0  0
    0.0000    0.0000    0.0000 H   0  0  0  0  0  0  0  0  0  0  0  0
    0.0000    0.0000    0.0000 H   0  0  0  0  0  0  0  0  0  0  0  0
    0.0000    0.0000    0.0000 H   0  0  0  0  0  0  0  0  0  0  0  0
    0.0000    0.0000    0.0000 H   0  0  0  0  0  0  0  0  0  0  0  0
    0.0000    0.0000    0.0000 H   0  0  0  0  0  0  0  0  0  0  0  0
    0.0000    0.0000    0.0000 H   0  0  0  0  0  0  0  0  0  0  0  0
    0.0000    0.0000    0.0000 H   0  0  0  0  0  0  0  0  0  0  0  0
    0.0000    0.0000    0.0000 H   0  0  0  0  0  0  0  0  0  0  0  0
    0.0000    0.0000    0.0000 H   0  0  0  0  0  0  0  0  0  0  0  0
    0.0000    0.0000    0.0000 H   0  0  0  0  0  0  0  0  0  0  0  0
    0.0000    0.0000    0.0000 H   0  0  0  0  0  0  0  0  0  0  0  0
    0.0000    0.0000    0.0000 H   0  0  0  0  0  0  0  0  0  0  0  0
    0.0000    0.0000    0.0000 H   0  0  0  0  0  0  0  0  0  0  0  0
    0.0000    0.0000    0.0000 H   0  0  0  0  0  0  0  0  0  0  0  0
    0.0000    0.0000    0.0000 H   0  0  0  0  0  0  0  0  0  0  0  0
    0.0000    0.0000    0.0000 H   0  0  0  0  0  0  0  0  0  0  0  0
    0.0000    0.0000    0.0000 H   0  0  0  0  0  0  0  0  0  0  0  0
    0.0000    0.0000    0.0000 H   0  0  0  0  0  0  0  0  0  0  0  0
    0.0000    0.0000    0.0000 H   0  0  0  0  0  0  0  0  0  0  0  0
    0.0000    0.0000    0.0000 H   0  0  0  0  0  0  0  0  0  0  0  0
    0.0000    0.0000    0.0000 H   0  0  0  0  0  0  0  0  0  0  0  0
    0.0000    0.0000    0.0000 H   0  0  0  0  0  0  0  0  0  0  0  0
    0.0000    0.0000    0.0000 H   0  0  0  0  0  0  0  0  0  0  0  0
  1  2  1  0
  2  3  1  0
  2  6  1  0
  3  4  2  0
  3  5  1  0
  6  7  1  0
  7  8  1  0
  8  9  2  0
  8 10  1  0
 10 11  1  0
 11 12  1  0
 11 14  1  0
 12 13  2  0
 12 22  1  0
 14 15  1  0
 15 16  1  0
 16 17  1  0
 17 18  1  0
 18 19  1  0
 19 20  1  0
 20 21  1  0
 22 23  1  0
 23 24  1  0
 24 25  2  0
 24 26  1  0
  1 27  1  0
  1 28  1  0
  2 29  1  1
  5 30  1  0
  6 31  1  0
  6 32  1  0
  7 33  1  0
  7 34  1  0
 10 35  1  0
 11 36  1  6
 14 37  1  0
 14 38  1  0
 16 39  1  0
 16 40  1  0
 17 41  1  0
 17 42  1  0
 18 43  1  0
 18 44  1  0
 19 45  1  0
 19 46  1  0
 20 47  1  0
 20 48  1  0
 21 49  1  0
 21 50  1  0
 21 51  1  0
 22 52  1  0
 23 53  1  0
 23 54  1  0
 26 55  1  0
M  END
$$$$
